<?xml version="1.0" encoding="UTF-8"?>

<!-- generated on 2025-05-06 18:47:26.033160 by osmwebwizard.py v1_23_0+0000-ad042bb7d28
<configuration>
    <net-file value="C:\Users\Aidan\Sumo\2025-05-06-18-46-49\osm.net.xml.gz"/>
    <output-trip-file value="C:\Users\Aidan\Sumo\2025-05-06-18-46-49\osm.passenger.trips.xml"/>
    <route-file value="C:\Users\Aidan\Sumo\2025-05-06-18-46-49\osm.passenger.rou.xml"/>
    <prefix value="veh"/>
    <trip-attributes value="departLane=&quot;best&quot;"/>
    <fringe-start-attributes value="departSpeed=&quot;max&quot;"/>
    <vehicle-class value="passenger"/>
    <lanes value="True"/>
    <fringe-factor value="5"/>
    <allow-fringe.min-length value="1000.0"/>
    <edge-permission value="passenger"/>
    <via-edge-types value="highway.motorway,highway.motorway_link,highway.trunk_link,highway.primary_link,highway.secondary_link,highway.tertiary_link"/>
    <min-distance value="300.0"/>
    <min-distance.fringe value="10.0"/>
    <remove-loops value="True"/>
    <validate value="True"/>
    <insertion-density value="12.0"/>
</configuration>
-->

<routes xmlns:xsi="http://www.w3.org/2001/XMLSchema-instance" xsi:noNamespaceSchemaLocation="http://sumo.dlr.de/xsd/routes_file.xsd">
    <vType id="veh_passenger" vClass="passenger"/>
    <trip id="veh0" depart="0.00" from="-507023458#0" to="-4588217#1" departLane="best" type="veh_passenger"/>
    <trip id="veh1" depart="4.45" from="312533962#0" to="292429062#1" departLane="best" type="veh_passenger" departSpeed="max"/>
    <trip id="veh2" depart="8.90" from="4790799" to="-1305423286#0" departLane="best" type="veh_passenger" departSpeed="max"/>
    <trip id="veh3" depart="13.35" from="114667396#2" to="-1115509343#1" departLane="best" type="veh_passenger"/>
    <trip id="veh4" depart="17.79" from="-437325047#6" to="168940071#7" departLane="best" type="veh_passenger"/>
    <trip id="veh5" depart="22.24" from="-111833185#1" to="-36689633#1" departLane="best" type="veh_passenger"/>
    <trip id="veh6" depart="26.69" from="24913267#3" to="194073677#2" departLane="best" type="veh_passenger"/>
    <trip id="veh7" depart="31.14" from="-4396823#0" to="23121445#4" departLane="best" type="veh_passenger"/>
    <trip id="veh8" depart="35.59" from="437325047#6" to="-1095407470#0" departLane="best" type="veh_passenger"/>
    <trip id="veh9" depart="40.04" from="43231842#3" to="301610520#1" departLane="best" type="veh_passenger"/>
    <trip id="veh10" depart="44.49" from="1102154080#1" to="-23812656#3" departLane="best" type="veh_passenger"/>
    <trip id="veh11" depart="48.93" from="756306892" to="111251382#1" departLane="best" type="veh_passenger"/>
    <trip id="veh12" depart="53.38" from="-137630045#0" to="-147066248#0" departLane="best" type="veh_passenger"/>
    <trip id="veh13" depart="57.83" from="4610608" to="23809678#6" departLane="best" type="veh_passenger"/>
    <trip id="veh14" depart="62.28" from="173197451#2" to="82654059#1" departLane="best" type="veh_passenger"/>
    <trip id="veh15" depart="66.73" from="112128418#4" to="195397541#3" departLane="best" type="veh_passenger"/>
    <trip id="veh16" depart="71.18" from="4588219#1" to="24242892#4" departLane="best" type="veh_passenger"/>
    <trip id="veh17" depart="75.63" from="4612961#1" to="202156994#0" departLane="best" type="veh_passenger"/>
    <trip id="veh18" depart="80.08" from="301610520#1" to="-1127596842#0" departLane="best" type="veh_passenger"/>
    <trip id="veh19" depart="84.52" from="-454285423#2" to="-85255870#0" departLane="best" type="veh_passenger"/>
    <trip id="veh20" depart="88.97" from="-1263204721" to="-4610612#0" departLane="best" type="veh_passenger"/>
    <trip id="veh21" depart="93.42" from="-156364570#4" to="-750204886#0" departLane="best" type="veh_passenger"/>
    <trip id="veh22" depart="97.87" from="1119936840#1" to="-437325048#1" departLane="best" type="veh_passenger"/>
    <trip id="veh23" depart="102.32" from="-4773029#4" to="705182548" departLane="best" type="veh_passenger"/>
    <trip id="veh24" depart="106.77" from="246052428" to="24241762#1" departLane="best" type="veh_passenger"/>
    <trip id="veh25" depart="111.22" from="-24242882#1" to="1126246695#1" departLane="best" type="veh_passenger"/>
    <trip id="veh26" depart="115.66" from="85255870#0" to="24992424#3" departLane="best" type="veh_passenger" departSpeed="max"/>
    <trip id="veh27" depart="120.11" from="4610476#4" to="35269774#0" departLane="best" type="veh_passenger"/>
    <trip id="veh28" depart="124.56" from="-454285423#5" to="-111833185#0" departLane="best" type="veh_passenger"/>
    <trip id="veh29" depart="129.01" from="100405009#2" to="-6227658#0" departLane="best" type="veh_passenger"/>
    <trip id="veh30" depart="133.46" from="-36689633#1" to="749876418#0" departLane="best" type="veh_passenger"/>
    <trip id="veh31" depart="137.91" from="4613306#0" to="1098856743#1" departLane="best" type="veh_passenger"/>
    <trip id="veh32" depart="142.36" from="24914141#0" to="1133761786" departLane="best" type="veh_passenger" departSpeed="max"/>
    <trip id="veh33" depart="146.80" from="534588621#0" to="1320422400#0" departLane="best" type="veh_passenger"/>
    <trip id="veh34" depart="151.25" from="-474362271" to="-4612976#0" departLane="best" type="veh_passenger"/>
    <trip id="veh35" depart="155.70" from="19002363#4" to="-534588621#1" departLane="best" type="veh_passenger"/>
    <trip id="veh36" depart="160.15" from="196850608#1" to="490365295#0" departLane="best" type="veh_passenger"/>
    <trip id="veh37" depart="164.60" from="1126465703#1" to="-454285423#5" departLane="best" type="veh_passenger"/>
    <trip id="veh38" depart="169.05" from="-1353005053#1" to="-1127602092#1" departLane="best" type="veh_passenger"/>
    <trip id="veh39" depart="173.50" from="-1158892040" to="1127596842#2" departLane="best" type="veh_passenger" departSpeed="max"/>
    <trip id="veh40" depart="177.94" from="882389497#1" to="177372522" departLane="best" type="veh_passenger"/>
    <trip id="veh41" depart="182.39" from="-1101961735#1" to="312176585" departLane="best" type="veh_passenger"/>
    <trip id="veh42" depart="186.84" from="288355301" to="188914559#1" departLane="best" type="veh_passenger" departSpeed="max"/>
    <trip id="veh43" depart="191.29" from="-4773029#4" to="24993933#0" departLane="best" type="veh_passenger"/>
    <trip id="veh44" depart="195.74" from="-168940071#6" to="1173516144#1" departLane="best" type="veh_passenger"/>
    <trip id="veh45" depart="200.19" from="1198409426#2" to="7917219#4" departLane="best" type="veh_passenger"/>
    <trip id="veh46" depart="204.64" from="4613298#1" to="-534588621#1" departLane="best" type="veh_passenger"/>
    <trip id="veh47" depart="209.08" from="153698402#3" to="-29311581#1" departLane="best" type="veh_passenger"/>
    <trip id="veh48" depart="213.53" from="52328295#0" to="4613295#5" departLane="best" type="veh_passenger"/>
    <trip id="veh49" depart="217.98" from="-7917219#3" to="24992424#0" departLane="best" type="veh_passenger"/>
    <trip id="veh50" depart="222.43" from="233835385" to="-23755739#1" departLane="best" type="veh_passenger" departSpeed="max"/>
    <trip id="veh51" depart="226.88" from="339201177#3" to="19002363#4" departLane="best" type="veh_passenger"/>
    <trip id="veh52" depart="231.33" from="35557161#1" to="187111590" departLane="best" type="veh_passenger"/>
    <trip id="veh53" depart="235.78" from="-1024034687#0" to="1102369938" departLane="best" type="veh_passenger"/>
    <trip id="veh54" depart="240.23" from="-85255869#2" to="-1151064407#2" departLane="best" type="veh_passenger" departSpeed="max"/>
    <trip id="veh55" depart="244.67" from="46140376#1" to="753730627#0" departLane="best" type="veh_passenger"/>
    <trip id="veh56" depart="249.12" from="-1323456347#1" to="155186522#0" departLane="best" type="veh_passenger"/>
    <trip id="veh57" depart="253.57" from="-1179820253#0" to="33301683" departLane="best" type="veh_passenger"/>
    <trip id="veh58" depart="258.02" from="1320422403#0" to="195104960#1" departLane="best" type="veh_passenger"/>
    <trip id="veh59" depart="262.47" from="-474362271" to="4613298#2" departLane="best" type="veh_passenger"/>
    <trip id="veh60" depart="266.92" from="1149417521#1" to="-4396823#4" departLane="best" type="veh_passenger"/>
    <trip id="veh61" depart="271.37" from="-326116285#7" to="1095407470#0" departLane="best" type="veh_passenger" departSpeed="max"/>
    <trip id="veh62" depart="275.81" from="1155226002#1" to="171826985#2" departLane="best" type="veh_passenger"/>
    <trip id="veh63" depart="280.26" from="-176043794#0" to="-4610351#0" departLane="best" type="veh_passenger"/>
    <trip id="veh64" depart="284.71" from="1102154074#1" to="23121445#2" departLane="best" type="veh_passenger"/>
    <trip id="veh65" depart="289.16" from="-1190781965" to="246052428" departLane="best" type="veh_passenger"/>
    <trip id="veh66" depart="293.61" from="-454285423#4" to="51167934#5" departLane="best" type="veh_passenger"/>
    <trip id="veh67" depart="298.06" from="-4610480#1" to="289966845" departLane="best" type="veh_passenger"/>
    <trip id="veh68" depart="302.51" from="-389101365#3" to="-19002363#3" departLane="best" type="veh_passenger"/>
    <trip id="veh69" depart="306.95" from="66071366#1" to="19801644#1" departLane="best" type="veh_passenger"/>
    <trip id="veh70" depart="311.40" from="1320422400#0" to="370359204#3" departLane="best" type="veh_passenger"/>
    <trip id="veh71" depart="315.85" from="437325047#0" to="-339201177#0" departLane="best" type="veh_passenger"/>
    <trip id="veh72" depart="320.30" from="-153698380#2" to="1170522567#0" departLane="best" type="veh_passenger"/>
    <trip id="veh73" depart="324.75" from="1149417521#1" to="1323456348#1" departLane="best" type="veh_passenger"/>
    <trip id="veh74" depart="329.20" from="312357351#3" to="29177662#2" departLane="best" type="veh_passenger"/>
    <trip id="veh75" depart="333.65" from="831694400#0" to="-147066248#0" departLane="best" type="veh_passenger"/>
    <trip id="veh76" depart="338.09" from="1127602336" to="1113726463" departLane="best" type="veh_passenger"/>
    <trip id="veh77" depart="342.54" from="4612961#1" to="-4613298#1" departLane="best" type="veh_passenger"/>
    <trip id="veh78" depart="346.99" from="-312176585" to="1255579902" departLane="best" type="veh_passenger" departSpeed="max"/>
    <trip id="veh79" depart="351.44" from="114667396#2" to="-751595928#1" departLane="best" type="veh_passenger"/>
    <trip id="veh80" depart="355.89" from="1159149106#0" to="4612961#1" departLane="best" type="veh_passenger"/>
    <trip id="veh81" depart="360.34" from="188044903#0" to="-1133992736#0" departLane="best" type="veh_passenger"/>
    <trip id="veh82" depart="364.79" from="930343902#1" to="4610355#9" departLane="best" type="veh_passenger"/>
    <trip id="veh83" depart="369.23" from="82639457#3" to="6227658#0" departLane="best" type="veh_passenger"/>
    <trip id="veh84" depart="373.68" from="4610612#0" to="-24992424#5" departLane="best" type="veh_passenger"/>
    <trip id="veh85" depart="378.13" from="136571494#1" to="-4402014#3" departLane="best" type="veh_passenger"/>
    <trip id="veh86" depart="382.58" from="1127596842#2" to="-1152640374#0" departLane="best" type="veh_passenger"/>
    <trip id="veh87" depart="387.03" from="112128419#1" to="831659093#0" departLane="best" type="veh_passenger"/>
    <trip id="veh88" depart="391.48" from="-4773029#1" to="370359204#1" departLane="best" type="veh_passenger"/>
    <trip id="veh89" depart="395.93" from="120675240#3" to="1155226002#1" departLane="best" type="veh_passenger"/>
    <trip id="veh90" depart="400.38" from="756306892" to="882389494#1" departLane="best" type="veh_passenger"/>
    <trip id="veh91" depart="404.82" from="-23812656#2" to="100405009#1" departLane="best" type="veh_passenger"/>
    <trip id="veh92" depart="409.27" from="82639457#3" to="202157002#1" departLane="best" type="veh_passenger"/>
    <trip id="veh93" depart="413.72" from="-1155226002#3" to="225400578#4" departLane="best" type="veh_passenger" departSpeed="max"/>
    <trip id="veh94" depart="418.17" from="155186522#1" to="4611699#0" departLane="best" type="veh_passenger"/>
    <trip id="veh95" depart="422.62" from="-23813206" to="82652397#0" departLane="best" type="veh_passenger" departSpeed="max"/>
    <trip id="veh96" depart="427.07" from="-1302053249" to="-326116285#5" departLane="best" type="veh_passenger" departSpeed="max"/>
    <trip id="veh97" depart="431.52" from="202157002#2" to="292429056#1" departLane="best" type="veh_passenger"/>
    <trip id="veh98" depart="435.96" from="-4610374#1" to="-169660686#0" departLane="best" type="veh_passenger"/>
    <trip id="veh99" depart="440.41" from="4790799" to="-4612976#0" departLane="best" type="veh_passenger" departSpeed="max"/>
    <trip id="veh100" depart="444.86" from="202157002#1" to="24242892#4" departLane="best" type="veh_passenger"/>
    <trip id="veh101" depart="449.31" from="1133992735#0" to="225400578#3" departLane="best" type="veh_passenger"/>
    <trip id="veh102" depart="453.76" from="168940071#6" to="68647306#5" departLane="best" type="veh_passenger"/>
    <trip id="veh103" depart="458.21" from="-330840125#1" to="31112516#2" departLane="best" type="veh_passenger"/>
    <trip id="veh104" depart="462.66" from="-4610524#1" to="1133761786" departLane="best" type="veh_passenger" departSpeed="max"/>
    <trip id="veh105" depart="467.10" from="-1198409426#2" to="1320422400#0" departLane="best" type="veh_passenger"/>
    <trip id="veh106" depart="471.55" from="930343901#2" to="882389497#1" departLane="best" type="veh_passenger"/>
    <trip id="veh107" depart="476.00" from="-120675240#2" to="-4402014#2" departLane="best" type="veh_passenger"/>
    <trip id="veh108" depart="480.45" from="4615546#0" to="46140382" departLane="best" type="veh_passenger"/>
    <trip id="veh109" depart="484.90" from="1119935543#0" to="-24241762#0" departLane="best" type="veh_passenger"/>
    <trip id="veh110" depart="489.35" from="233835385" to="831694400#1" departLane="best" type="veh_passenger" departSpeed="max"/>
    <trip id="veh111" depart="493.80" from="24914141#0" to="-1095407470#0" departLane="best" type="veh_passenger" departSpeed="max"/>
    <trip id="veh112" depart="498.24" from="4403559#0" to="100405009#3" departLane="best" type="veh_passenger"/>
    <trip id="veh113" depart="502.69" from="24992424#0" to="72157174#1" departLane="best" type="veh_passenger"/>
    <trip id="veh114" depart="507.14" from="-195105328" to="-168942727#2" departLane="best" type="veh_passenger"/>
    <trip id="veh115" depart="511.59" from="-15973619#7" to="195397561#1" departLane="best" type="veh_passenger" departSpeed="max"/>
    <trip id="veh116" depart="516.04" from="-492340367#1" to="23809678#8" departLane="best" type="veh_passenger"/>
    <trip id="veh117" depart="520.49" from="310177222#1" to="-38208961" departLane="best" type="veh_passenger"/>
    <trip id="veh118" depart="524.94" from="24241790#2" to="-541295974#0" departLane="best" type="veh_passenger"/>
    <trip id="veh119" depart="529.38" from="4610524#1" to="-1335908655" departLane="best" type="veh_passenger"/>
    <trip id="veh120" depart="533.83" from="1149417521#1" to="-705182550" departLane="best" type="veh_passenger"/>
    <trip id="veh121" depart="538.28" from="-1024034687#7" to="340498988#0" departLane="best" type="veh_passenger"/>
    <trip id="veh122" depart="542.73" from="313039168#1" to="195397541#3" departLane="best" type="veh_passenger"/>
    <trip id="veh123" depart="547.18" from="1151064396" to="-1098856743#1" departLane="best" type="veh_passenger"/>
    <trip id="veh124" depart="551.63" from="4790813#0" to="194073677#4" departLane="best" type="veh_passenger" departSpeed="max"/>
    <trip id="veh125" depart="556.08" from="-874528353#0" to="492340367#0" departLane="best" type="veh_passenger"/>
    <trip id="veh126" depart="560.53" from="38208961" to="4612961#0" departLane="best" type="veh_passenger"/>
    <trip id="veh127" depart="564.97" from="4790813#0" to="-437325054#1" departLane="best" type="veh_passenger" departSpeed="max"/>
    <trip id="veh128" depart="569.42" from="35578559" to="465376239" departLane="best" type="veh_passenger"/>
    <trip id="veh129" depart="573.87" from="1133457735#1" to="24242892#4" departLane="best" type="veh_passenger"/>
    <trip id="veh130" depart="578.32" from="-23809670#0" to="66071366#4" departLane="best" type="veh_passenger"/>
    <trip id="veh131" depart="582.77" from="4612969#1" to="82659290" departLane="best" type="veh_passenger"/>
    <trip id="veh132" depart="587.22" from="1100824590#1" to="66071379#1" departLane="best" type="veh_passenger"/>
    <trip id="veh133" depart="591.67" from="42103020#2" to="4612973#0" departLane="best" type="veh_passenger"/>
    <trip id="veh134" depart="596.11" from="437325054#0" to="-60333309#0" departLane="best" type="veh_passenger"/>
    <trip id="veh135" depart="600.56" from="369223458#2" to="-15973619#4" departLane="best" type="veh_passenger"/>
    <trip id="veh136" depart="605.01" from="-4402014#2" to="454285423#5" departLane="best" type="veh_passenger"/>
    <trip id="veh137" depart="609.46" from="380240681#2" to="-4610472#2" departLane="best" type="veh_passenger"/>
    <trip id="veh138" depart="613.91" from="1079495669#1" to="4612973#0" departLane="best" type="veh_passenger"/>
    <trip id="veh139" depart="618.36" from="82639450" to="-755340907#0" departLane="best" type="veh_passenger"/>
    <trip id="veh140" depart="622.81" from="24243101" to="1133992873#1" departLane="best" type="veh_passenger"/>
    <trip id="veh141" depart="627.25" from="830728708#3" to="188914559#0" departLane="best" type="veh_passenger"/>
    <trip id="veh142" depart="631.70" from="681299268#1" to="-168942727#1" departLane="best" type="veh_passenger"/>
    <trip id="veh143" depart="636.15" from="7917219#3" to="-560370523" departLane="best" type="veh_passenger"/>
    <trip id="veh144" depart="640.60" from="-168935756#1" to="1173516144#1" departLane="best" type="veh_passenger"/>
    <trip id="veh145" depart="645.05" from="312357351#3" to="1097921784#1" departLane="best" type="veh_passenger"/>
    <trip id="veh146" depart="649.50" from="233835385" to="169195795#0" departLane="best" type="veh_passenger" departSpeed="max"/>
    <trip id="veh147" depart="653.95" from="1125871007" to="202156994#0" departLane="best" type="veh_passenger" departSpeed="max"/>
    <trip id="veh148" depart="658.39" from="-4612974#1" to="30721662#1" departLane="best" type="veh_passenger"/>
    <trip id="veh149" depart="662.84" from="-1024034687#2" to="61584187#1" departLane="best" type="veh_passenger"/>
    <trip id="veh150" depart="667.29" from="176043794#0" to="312176585" departLane="best" type="veh_passenger"/>
    <trip id="veh151" depart="671.74" from="31313667#1" to="29177662#2" departLane="best" type="veh_passenger"/>
    <trip id="veh152" depart="676.19" from="111833185#0" to="-1173516144#0" departLane="best" type="veh_passenger"/>
    <trip id="veh153" depart="680.64" from="24992424#0" to="1105574290" departLane="best" type="veh_passenger"/>
    <trip id="veh154" depart="685.09" from="100405009#1" to="4611693#1" departLane="best" type="veh_passenger"/>
    <trip id="veh155" depart="689.53" from="-874528353#3" to="1149417521#1" departLane="best" type="veh_passenger"/>
    <trip id="veh156" depart="693.98" from="1127602092#1" to="-979668824#0" departLane="best" type="veh_passenger"/>
    <trip id="veh157" depart="698.43" from="-19002363#1" to="1153905266" departLane="best" type="veh_passenger"/>
    <trip id="veh158" depart="702.88" from="68647306#3" to="292429062#3" departLane="best" type="veh_passenger"/>
    <trip id="veh159" depart="707.33" from="4790813#0" to="24242892#1" departLane="best" type="veh_passenger" departSpeed="max"/>
    <trip id="veh160" depart="711.78" from="-1006033769" to="-82658674#1" departLane="best" type="veh_passenger"/>
    <trip id="veh161" depart="716.23" from="1151064407#1" to="202157002#2" departLane="best" type="veh_passenger"/>
    <trip id="veh162" depart="720.68" from="24914141#0" to="1323456346#0" departLane="best" type="veh_passenger" departSpeed="max"/>
    <trip id="veh163" depart="725.12" from="1158892039#1" to="-4402014#3" departLane="best" type="veh_passenger"/>
    <trip id="veh164" depart="729.57" from="1320422402" to="493008124#1" departLane="best" type="veh_passenger"/>
    <trip id="veh165" depart="734.02" from="38208961" to="-268002745#2" departLane="best" type="veh_passenger"/>
    <trip id="veh166" depart="738.47" from="-1323456346#2" to="171826984#2" departLane="best" type="veh_passenger"/>
    <trip id="veh167" depart="742.92" from="23852053#3" to="1112054538" departLane="best" type="veh_passenger"/>
    <trip id="veh168" depart="747.37" from="268002745#2" to="-4588220#1" departLane="best" type="veh_passenger"/>
    <trip id="veh169" depart="751.82" from="-326116285#7" to="-1105574291#2" departLane="best" type="veh_passenger" departSpeed="max"/>
    <trip id="veh170" depart="756.26" from="-4611693#3" to="136571494#1" departLane="best" type="veh_passenger"/>
    <trip id="veh171" depart="760.71" from="4611693#1" to="-1176516118#1" departLane="best" type="veh_passenger"/>
    <trip id="veh172" depart="765.16" from="-316746323#4" to="301241681#3" departLane="best" type="veh_passenger"/>
    <trip id="veh173" depart="769.61" from="153698380#1" to="-4612974#0" departLane="best" type="veh_passenger"/>
    <trip id="veh174" depart="774.06" from="326116285#6" to="340498976#9" departLane="best" type="veh_passenger"/>
    <trip id="veh175" depart="778.51" from="-15973619#7" to="1157111072#1" departLane="best" type="veh_passenger" departSpeed="max"/>
    <trip id="veh176" depart="782.96" from="165415454#2" to="-1133992736#0" departLane="best" type="veh_passenger"/>
    <trip id="veh177" depart="787.40" from="1217865061#0" to="437325047#1" departLane="best" type="veh_passenger"/>
    <trip id="veh178" depart="791.85" from="202157002#2" to="756306892" departLane="best" type="veh_passenger"/>
    <trip id="veh179" depart="796.30" from="4790799" to="24241797#0" departLane="best" type="veh_passenger" departSpeed="max"/>
    <trip id="veh180" depart="800.75" from="310357283#2" to="168940071#6" departLane="best" type="veh_passenger"/>
    <trip id="veh181" depart="805.20" from="4588219#3" to="194962398#0" departLane="best" type="veh_passenger"/>
    <trip id="veh182" depart="809.65" from="4790813#0" to="326116285#7" departLane="best" type="veh_passenger" departSpeed="max"/>
    <trip id="veh183" depart="814.10" from="1320422403#0" to="-51167934#2" departLane="best" type="veh_passenger"/>
    <trip id="veh184" depart="818.54" from="-4611706#1" to="24914141#6" departLane="best" type="veh_passenger"/>
    <trip id="veh185" depart="822.99" from="339201219" to="173296880#1" departLane="best" type="veh_passenger"/>
    <trip id="veh186" depart="827.44" from="23809678#1" to="-681299268#1" departLane="best" type="veh_passenger"/>
    <trip id="veh187" depart="831.89" from="176043806#2" to="-195105328" departLane="best" type="veh_passenger"/>
    <trip id="veh188" depart="836.34" from="-4570580#1" to="301241681#1" departLane="best" type="veh_passenger"/>
    <trip id="veh189" depart="840.79" from="301733776" to="-1155757392" departLane="best" type="veh_passenger"/>
    <trip id="veh190" depart="845.24" from="1133457765#0" to="190447768#1" departLane="best" type="veh_passenger"/>
    <trip id="veh191" depart="849.68" from="1133761786" to="-43231842#3" departLane="best" type="veh_passenger"/>
    <trip id="veh192" depart="854.13" from="1144362247" to="51167934#4" departLane="best" type="veh_passenger"/>
    <trip id="veh193" depart="858.58" from="196850608#0" to="301241681#3" departLane="best" type="veh_passenger"/>
    <trip id="veh194" depart="863.03" from="4611708#0" to="339201219" departLane="best" type="veh_passenger"/>
    <trip id="veh195" depart="867.48" from="4611698" to="7917219#3" departLane="best" type="veh_passenger"/>
    <trip id="veh196" depart="871.93" from="1133992735#0" to="326116286#0" departLane="best" type="veh_passenger"/>
    <trip id="veh197" depart="876.38" from="-4396823#2" to="-454285423#5" departLane="best" type="veh_passenger"/>
    <trip id="veh198" depart="880.83" from="11549895" to="-1114798610#1" departLane="best" type="veh_passenger"/>
    <trip id="veh199" depart="885.27" from="1101961735#1" to="292429063#2" departLane="best" type="veh_passenger"/>
    <trip id="veh200" depart="889.72" from="236092221#0" to="-111251382#2" departLane="best" type="veh_passenger"/>
    <trip id="veh201" depart="894.17" from="-195397541#2" to="1320422403#0" departLane="best" type="veh_passenger"/>
    <trip id="veh202" depart="898.62" from="-1151064407#0" to="1126246695#1" departLane="best" type="veh_passenger"/>
    <trip id="veh203" depart="903.07" from="-369223458#2" to="1102656539#1" departLane="best" type="veh_passenger"/>
    <trip id="veh204" depart="907.52" from="326116286#0" to="4610355#13" departLane="best" type="veh_passenger"/>
    <trip id="veh205" depart="911.97" from="-4612969#0" to="-1225924291#1" departLane="best" type="veh_passenger"/>
    <trip id="veh206" depart="916.41" from="-1105574291#1" to="19002403#1" departLane="best" type="veh_passenger"/>
    <trip id="veh207" depart="920.86" from="950222545" to="1119935543#0" departLane="best" type="veh_passenger"/>
    <trip id="veh208" depart="925.31" from="24913267#3" to="35578576#3" departLane="best" type="veh_passenger"/>
    <trip id="veh209" depart="929.76" from="749876418#0" to="-369223458#0" departLane="best" type="veh_passenger"/>
    <trip id="veh210" depart="934.21" from="-1110526068" to="-23755739#0" departLane="best" type="veh_passenger"/>
    <trip id="veh211" depart="938.66" from="-188914559#0" to="289967595#0" departLane="best" type="veh_passenger"/>
    <trip id="veh212" depart="943.11" from="190447766#1" to="-454285423#2" departLane="best" type="veh_passenger"/>
    <trip id="veh213" depart="947.55" from="301241483#4" to="340498976#10" departLane="best" type="veh_passenger"/>
    <trip id="veh214" depart="952.00" from="-24992424#2" to="23852053#1" departLane="best" type="veh_passenger"/>
    <trip id="veh215" depart="956.45" from="318915602#4" to="-168940071#8" departLane="best" type="veh_passenger"/>
    <trip id="veh216" depart="960.90" from="4412868#1" to="82652397#1" departLane="best" type="veh_passenger"/>
    <trip id="veh217" depart="965.35" from="-165415464#1" to="-1110748916#1" departLane="best" type="veh_passenger"/>
    <trip id="veh218" depart="969.80" from="30721662#0" to="-1198409426#0" departLane="best" type="veh_passenger"/>
    <trip id="veh219" depart="974.25" from="-15971189" to="340498988#0" departLane="best" type="veh_passenger"/>
    <trip id="veh220" depart="978.69" from="4611693#2" to="23755739#2" departLane="best" type="veh_passenger"/>
    <trip id="veh221" depart="983.14" from="-176043794#0" to="831658811#1" departLane="best" type="veh_passenger"/>
    <trip id="veh222" depart="987.59" from="36689633#0" to="1119838636#2" departLane="best" type="veh_passenger" departSpeed="max"/>
    <trip id="veh223" depart="992.04" from="156364559" to="1115509343#1" departLane="best" type="veh_passenger" departSpeed="max"/>
    <trip id="veh224" depart="996.49" from="4611693#1" to="457031289" departLane="best" type="veh_passenger"/>
    <trip id="veh225" depart="1000.94" from="-15973619#7" to="82652397#0" departLane="best" type="veh_passenger" departSpeed="max"/>
    <trip id="veh226" depart="1005.39" from="24241797#0" to="4588219#3" departLane="best" type="veh_passenger"/>
    <trip id="veh227" depart="1009.83" from="301733776" to="1175552853#2" departLane="best" type="veh_passenger"/>
    <trip id="veh228" depart="1014.28" from="1153905266" to="31313667#1" departLane="best" type="veh_passenger"/>
    <trip id="veh229" depart="1018.73" from="-4790825#2" to="4611698" departLane="best" type="veh_passenger" departSpeed="max"/>
    <trip id="veh230" depart="1023.18" from="4588219#3" to="-1263204721" departLane="best" type="veh_passenger"/>
    <trip id="veh231" depart="1027.63" from="465376240#0" to="-4612970#1" departLane="best" type="veh_passenger"/>
    <trip id="veh232" depart="1032.08" from="1267489731#1" to="24241762#2" departLane="best" type="veh_passenger"/>
    <trip id="veh233" depart="1036.53" from="112128419#1" to="-1114798610#1" departLane="best" type="veh_passenger"/>
    <trip id="veh234" depart="1040.98" from="-369223458#3" to="43231842#0" departLane="best" type="veh_passenger"/>
    <trip id="veh235" depart="1045.42" from="1102154080#1" to="461526152#1" departLane="best" type="veh_passenger"/>
    <trip id="veh236" depart="1049.87" from="301241681#1" to="-705182550" departLane="best" type="veh_passenger"/>
    <trip id="veh237" depart="1054.32" from="-1101961674#3" to="753730627#1" departLane="best" type="veh_passenger"/>
    <trip id="veh238" depart="1058.77" from="-1323456347#1" to="312176585" departLane="best" type="veh_passenger"/>
    <trip id="veh239" depart="1063.22" from="147066248#0" to="415280722" departLane="best" type="veh_passenger" departSpeed="max"/>
    <trip id="veh240" depart="1067.67" from="-137630045#0" to="-4570580#2" departLane="best" type="veh_passenger"/>
    <trip id="veh241" depart="1072.12" from="292429062#0" to="1024034687#7" departLane="best" type="veh_passenger"/>
    <trip id="veh242" depart="1076.56" from="195411602#1" to="1353005053#1" departLane="best" type="veh_passenger"/>
    <trip id="veh243" depart="1081.01" from="169999355#1" to="1157231003#1" departLane="best" type="veh_passenger"/>
    <trip id="veh244" depart="1085.46" from="318282850#2" to="1105574291#1" departLane="best" type="veh_passenger"/>
    <trip id="veh245" depart="1089.91" from="301241681#3" to="-625843712" departLane="best" type="veh_passenger"/>